010_25-fluoroponasterone
  -MTS-   11249911013D 0   0.00000     0.00000     0

 34 37  0  0  0  0  0  0  0  0  1 V2000
   -5.2245   -1.3213   -0.8079 C   0  0  0  0  0  0  0  0  0  0  0  0
   -5.3901   -2.2409    0.4355 C   0  0  0  0  0  0  0  0  0  0  0  0
   -6.1082   -1.4812    1.5815 C   0  0  0  0  0  0  0  0  0  0  0  0
   -5.3748   -0.1575    1.9164 C   0  0  0  0  0  0  0  0  0  0  0  0
   -5.2579    0.7242    0.6446 C   0  0  0  0  0  0  0  0  0  0  0  0
   -4.5670    2.0184    0.9663 C   0  0  0  0  0  0  0  0  0  0  0  0
   -3.1008    2.0615    1.0134 C   0  0  0  0  0  0  0  0  0  0  0  0
   -2.3467    1.0596    0.5415 C   0  0  0  0  0  0  0  0  0  0  0  0
   -2.9640   -0.1665   -0.1250 C   0  0  0  0  0  0  0  0  0  0  0  0
   -4.4835    0.0243   -0.5147 C   0  0  0  0  0  0  0  0  0  0  0  0
   -2.0930   -0.7705   -1.2760 C   0  0  0  0  0  0  0  0  0  0  0  0
   -0.5632   -0.7629   -0.9972 C   0  0  0  0  0  0  0  0  0  0  0  0
   -0.0762    0.6664   -0.6033 C   0  0  0  0  0  0  0  0  0  0  0  0
   -0.8349    1.0629    0.6999 C   0  0  0  0  0  0  0  0  0  0  0  0
   -0.3670    1.6760   -1.7635 C   0  0  0  0  0  0  0  0  0  0  0  0
   -0.1218    2.3765    1.0966 C   0  0  0  0  0  0  0  0  0  0  0  0
    1.3708    2.0748    0.7777 C   0  0  0  0  0  0  0  0  0  0  0  0
    1.4075    0.7910   -0.1151 C   0  0  0  0  0  0  0  0  0  0  0  0
    2.6035    0.8029   -1.1397 C   0  0  0  0  0  0  0  0  0  0  0  0
   -5.2152    3.0295    1.1856 O   0  0  0  0  0  0  0  0  0  0  0  0
   -0.5278    0.2238    1.8372 O   0  0  0  0  0  0  0  0  0  0  0  0
   -6.2058   -3.3800    0.1058 O   0  0  0  0  0  0  0  0  0  0  0  0
   -7.4600   -1.1741    1.1965 O   0  0  0  0  0  0  0  0  0  0  0  0
    6.8282    1.6168    0.2784 F   0  0  0  0  0  0  0  0  0  0  0  0
    4.9060    1.3272   -1.4866 O   0  0  0  0  0  0  0  0  0  0  0  0
    2.6164   -0.4409   -2.0757 C   0  0  0  0  0  0  0  0  0  0  0  0
    4.0015    0.9347   -0.4363 C   0  0  0  0  0  0  0  0  0  0  0  0
    4.5043   -0.3608    0.2779 C   0  0  0  0  0  0  0  0  0  0  0  0
    5.6207   -0.1391    1.3449 C   0  0  0  0  0  0  0  0  0  0  0  0
    6.9970    0.3869    0.8371 C   0  0  0  0  0  0  0  0  0  0  0  0
    7.6458   -0.5591   -0.2114 C   0  0  0  0  0  0  0  0  0  0  0  0
    7.9664    0.5727    2.0379 C   0  0  0  0  0  0  0  0  0  0  0  0
   -4.6196    0.9332   -1.7819 C   0  0  0  0  0  0  0  0  0  0  0  0
    2.4567    1.9729   -1.9665 O   0  0  0  0  0  0  0  0  0  0  0  0
  1  2  1  0  0  0  0
 10  1  1  0  0  0  0
  2  3  1  0  0  0  0
  4  3  1  0  0  0  0
  3 23  1  0  0  0  0
  5  4  1  0  0  0  0
  5  6  1  0  0  0  0
 10  5  1  0  0  0  0
  6  7  1  0  0  0  0
  9  8  1  0  0  0  0
  8 14  1  0  0  0  0
  9 10  1  0  0  0  0
  9 11  1  0  0  0  0
 11 12  1  0  0  0  0
 12 13  1  0  0  0  0
 13 14  1  0  0  0  0
 13 15  1  0  0  0  0
 13 18  1  0  0  0  0
 14 16  1  0  0  0  0
 14 21  1  0  0  0  0
 16 17  1  0  0  0  0
 17 18  1  0  0  0  0
 18 19  1  0  0  0  0
 30 24  1  0  0  0  0
 27 25  1  0  0  0  0
 30 31  1  0  0  0  0
 30 32  1  0  0  0  0
  2 22  1  0  0  0  0
 19 26  1  0  0  0  0
 19 27  1  0  0  0  0
 27 28  1  0  0  0  0
 28 29  1  0  0  0  0
 29 30  1  0  0  0  0
  6 20  2  0  0  0  0
  7  8  2  0  0  0  0
 10 33  1  0  0  0  0
 19 34  1  0  0  0  0
M  END
