
  CDK     0310111612

 87 95  0  0  0  0  0  0  0  0999 V2000
    8.6400    8.0860    4.6230 Fe  0  0  0  0  0  0  0  0  0  0  0  0
    7.9140    8.8680    6.3040 N   0  0  0  0  0  0  0  0  0  0  0  0
    6.7570    7.5510    4.0880 N   0  0  0  0  0  0  0  0  0  0  0  0
    9.3960    7.3050    3.0140 N   0  0  0  0  0  0  0  0  0  0  0  0
   10.4960    8.6420    5.2510 N   0  0  0  0  0  0  0  0  0  0  0  0
    8.5900    9.5090    7.3670 C   0  0  0  0  0  0  0  0  0  0  0  0
    9.9860    9.7080    7.3990 C   0  0  0  0  0  0  0  0  0  0  0  0
   10.8530    9.3080    6.4260 C   0  0  0  0  0  0  0  0  0  0  0  0
    5.5840    7.7870    4.8320 C   0  0  0  0  0  0  0  0  0  0  0  0
    5.5150    8.4100    6.0310 C   0  0  0  0  0  0  0  0  0  0  0  0
    6.5920    8.9140    6.7230 C   0  0  0  0  0  0  0  0  0  0  0  0
    8.7180    6.6360    1.9220 C   0  0  0  0  0  0  0  0  0  0  0  0
    7.2490    6.4210    1.8510 C   0  0  0  0  0  0  0  0  0  0  0  0
    6.3340    6.8680    2.9100 C   0  0  0  0  0  0  0  0  0  0  0  0
   11.7230    8.4430    4.6150 C   0  0  0  0  0  0  0  0  0  0  0  0
   11.8310    7.8080    3.4180 C   0  0  0  0  0  0  0  0  0  0  0  0
   10.7600    7.2780    2.6740 C   0  0  0  0  0  0  0  0  0  0  0  0
    7.6550    9.9650    8.4790 C   0  0  0  0  0  0  0  0  0  0  0  0
    7.9640   10.6970    9.8240 C   0  0  0  0  0  0  0  0  0  0  0  0
    6.4280    9.5840    8.0530 C   0  0  0  0  0  0  0  0  0  0  0  0
    5.1290    9.8380    8.8730 C   0  0  0  0  0  0  0  0  0  0  0  0
    8.5220   12.1320    9.7190 C   0  0  0  0  0  0  0  0  0  0  0  0
    9.8150   12.3390   10.5340 C   0  0  0  0  0  0  0  0  0  0  0  0
    9.8960   11.8420   11.6980 O   0  0  0  0  0  0  0  0  0  0  0  0
   10.7510   13.0010   10.0110 O   0  0  0  0  0  0  0  0  0  0  0  0
    4.3950    7.2880    4.1950 C   0  0  0  0  0  0  0  0  0  0  0  0
    2.9270    7.3760    4.7480 C   0  0  0  0  0  0  0  0  0  0  0  0
    4.7910    6.7070    3.0080 C   0  0  0  0  0  0  0  0  0  0  0  0
    3.8560    6.1050    2.1360 C   0  0  0  0  0  0  0  0  0  0  0  0
    3.0580    6.8380    1.1730 C   0  0  0  0  0  0  0  0  0  0  0  0
    9.7490    6.2030    0.9000 C   0  0  0  0  0  0  0  0  0  0  0  0
    9.6430    5.4480   -0.4700 C   0  0  0  0  0  0  0  0  0  0  0  0
   10.9520    6.6100    1.4050 C   0  0  0  0  0  0  0  0  0  0  0  0
   12.1870    6.3950    0.7660 C   0  0  0  0  0  0  0  0  0  0  0  0
   12.8940    5.1910    1.1700 C   0  0  0  0  0  0  0  0  0  0  0  0
   12.8310    8.9960    5.4030 C   0  0  0  0  0  0  0  0  0  0  0  0
   14.3240    8.9980    5.0860 C   0  0  0  0  0  0  0  0  0  0  0  0
   12.2920    9.5390    6.5320 C   0  0  0  0  0  0  0  0  0  0  0  0
   13.0240   10.2410    7.6940 C   0  0  0  0  0  0  0  0  0  0  0  0
   13.2520   11.7530    7.7640 C   0  0  0  0  0  0  0  0  0  0  0  0
   14.0100   12.1450    9.0470 C   0  0  0  0  0  0  0  0  0  0  0  0
   15.0090   12.9060    8.9510 O   0  0  0  0  0  0  0  0  0  0  0  0
   13.5980   11.6820   10.1630 O   0  0  0  0  0  0  0  0  0  0  0  0
    6.6450    6.8410    0.5090 C   0  0  0  0  0  0  0  0  0  0  0  0
    6.4240    8.1950    0.1210 C   0  0  0  0  0  0  0  0  0  0  0  0
    6.2740    5.7930   -0.4150 C   0  0  0  0  0  0  0  0  0  0  0  0
    5.8490    8.5030   -1.1520 C   0  0  0  0  0  0  0  0  0  0  0  0
    5.7150    6.1130   -1.6560 C   0  0  0  0  0  0  0  0  0  0  0  0
    5.4960    7.4590   -2.0370 C   0  0  0  0  0  0  0  0  0  0  0  0
   10.4400   10.2230    8.2620 H   0  0  0  0  0  0  0  0  0  0  0  0
    4.5110    8.5140    6.4750 H   0  0  0  0  0  0  0  0  0  0  0  0
   12.8570    7.7170    3.0240 H   0  0  0  0  0  0  0  0  0  0  0  0
    8.6520   10.0720   10.4410 H   0  0  0  0  0  0  0  0  0  0  0  0
    7.0540   10.6960   10.4680 H   0  0  0  0  0  0  0  0  0  0  0  0
    4.6510    8.8370    8.9860 H   0  0  0  0  0  0  0  0  0  0  0  0
    5.0070   10.3370    9.8630 H   0  0  0  0  0  0  0  0  0  0  0  0
    4.4460   10.3840    8.1820 H   0  0  0  0  0  0  0  0  0  0  0  0
    7.7480   12.8820   10.0050 H   0  0  0  0  0  0  0  0  0  0  0  0
    8.6730   12.4230    8.6530 H   0  0  0  0  0  0  0  0  0  0  0  0
   11.5470   13.1290   10.5130 H   0  0  0  0  0  0  0  0  0  0  0  0
    2.7380    8.4550    4.9570 H   0  0  0  0  0  0  0  0  0  0  0  0
    2.0050    6.9890    4.2540 H   0  0  0  0  0  0  0  0  0  0  0  0
    2.9500    6.9180    5.7650 H   0  0  0  0  0  0  0  0  0  0  0  0
    3.7440    5.0100    2.2110 H   0  0  0  0  0  0  0  0  0  0  0  0
    2.3280    6.3680    0.4920 H   0  0  0  0  0  0  0  0  0  0  0  0
    3.1700    7.9330    1.0980 H   0  0  0  0  0  0  0  0  0  0  0  0
    9.1320    5.7260    0.1040 H   0  0  0  0  0  0  0  0  0  0  0  0
    8.9150    6.0530   -1.0580 H   0  0  0  0  0  0  0  0  0  0  0  0
   10.4020    5.1290   -1.2220 H   0  0  0  0  0  0  0  0  0  0  0  0
    9.0960    4.5090   -0.2210 H   0  0  0  0  0  0  0  0  0  0  0  0
   11.9860    6.5250    0.9970 H   0  0  0  0  0  0  0  0  0  0  0  0
   12.5670    7.1070    0.0150 H   0  0  0  0  0  0  0  0  0  0  0  0
   13.8620    5.0230    0.6690 H   0  0  0  0  0  0  0  0  0  0  0  0
   12.5140    4.4790    1.9210 H   0  0  0  0  0  0  0  0  0  0  0  0
   14.4130    9.4670    4.0790 H   0  0  0  0  0  0  0  0  0  0  0  0
   15.1660    9.4180    5.6850 H   0  0  0  0  0  0  0  0  0  0  0  0
   14.5910    7.9300    4.9070 H   0  0  0  0  0  0  0  0  0  0  0  0
   14.0210    9.7530    7.7980 H   0  0  0  0  0  0  0  0  0  0  0  0
   12.5090    9.9420    8.6360 H   0  0  0  0  0  0  0  0  0  0  0  0
   12.2950   12.3160    7.6660 H   0  0  0  0  0  0  0  0  0  0  0  0
   13.7680   12.1320    6.8510 H   0  0  0  0  0  0  0  0  0  0  0  0
   15.4760   13.1480    9.7420 H   0  0  0  0  0  0  0  0  0  0  0  0
    6.7000    9.0100    0.8110 H   0  0  0  0  0  0  0  0  0  0  0  0
    6.4200    4.7280   -0.1680 H   0  0  0  0  0  0  0  0  0  0  0  0
    5.6770    9.5500   -1.4520 H   0  0  0  0  0  0  0  0  0  0  0  0
    5.4440    5.2940   -2.3430 H   0  0  0  0  0  0  0  0  0  0  0  0
    5.0520    7.6930   -3.0190 H   0  0  0  0  0  0  0  0  0  0  0  0
  1  2  1  0  0  0  0 
  1  3  1  0  0  0  0 
  1  4  1  0  0  0  0 
  1  5  1  0  0  0  0 
  2  6  1  0  0  0  0 
  2 11  2  0  0  0  0 
  3  9  1  0  0  0  0 
  3 14  1  0  0  0  0 
  4 12  2  0  0  0  0 
  4 17  1  0  0  0  0 
  5  8  1  0  0  0  0 
  5 15  1  0  0  0  0 
  6  7  2  0  0  0  0 
  6 18  1  0  0  0  0 
  7  8  1  0  0  0  0 
  7 50  1  0  0  0  0 
  8 38  2  0  0  0  0 
  9 10  2  0  0  0  0 
  9 26  1  0  0  0  0 
 10 11  1  0  0  0  0 
 10 51  1  0  0  0  0 
 11 20  1  0  0  0  0 
 12 13  1  0  0  0  0 
 12 31  1  0  0  0  0 
 13 14  2  0  0  0  0 
 13 44  1  0  0  0  0 
 14 28  1  0  0  0  0 
 15 16  1  0  0  0  0 
 15 36  2  0  0  0  0 
 16 17  2  0  0  0  0 
 16 52  1  0  0  0  0 
 17 33  1  0  0  0  0 
 18 19  1  0  0  0  0 
 18 20  2  0  0  0  0 
 19 22  1  0  0  0  0 
 19 53  1  0  0  0  0 
 19 54  1  0  0  0  0 
 20 21  1  0  0  0  0 
 21 55  1  0  0  0  0 
 21 56  1  0  0  0  0 
 21 57  1  0  0  0  0 
 22 23  1  0  0  0  0 
 22 58  1  0  0  0  0 
 22 59  1  0  0  0  0 
 23 24  2  0  0  0  0 
 23 25  1  0  0  0  0 
 25 60  1  0  0  0  0 
 26 27  1  0  0  0  0 
 26 28  2  0  0  0  0 
 27 61  1  0  0  0  0 
 27 62  1  0  0  0  0 
 27 63  1  0  0  0  0 
 28 29  1  0  0  0  0 
 29 30  2  0  0  0  0 
 29 64  1  0  0  0  0 
 30 65  1  0  0  0  0 
 30 66  1  0  0  0  0 
 31 32  1  0  0  0  0 
 31 33  1  0  0  0  0 
 31 67  1  0  0  0  0 
 32 68  1  0  0  0  0 
 32 69  1  0  0  0  0 
 32 70  1  0  0  0  0 
 33 34  1  0  0  0  0 
 33 71  1  0  0  0  0 
 34 35  2  0  0  0  0 
 34 72  1  0  0  0  0 
 35 73  1  0  0  0  0 
 35 74  1  0  0  0  0 
 36 37  1  0  0  0  0 
 36 38  1  0  0  0  0 
 37 75  1  0  0  0  0 
 37 76  1  0  0  0  0 
 37 77  1  0  0  0  0 
 38 39  1  0  0  0  0 
 39 40  1  0  0  0  0 
 39 78  1  0  0  0  0 
 39 79  1  0  0  0  0 
 40 41  1  0  0  0  0 
 40 80  1  0  0  0  0 
 40 81  1  0  0  0  0 
 41 42  1  0  0  0  0 
 41 43  2  0  0  0  0 
 42 82  1  0  0  0  0 
 44 45  2  0  0  0  0 
 44 46  1  0  0  0  0 
 45 47  1  0  0  0  0 
 45 83  1  0  0  0  0 
 46 48  2  0  0  0  0 
 46 84  1  0  0  0  0 
 47 49  2  0  0  0  0 
 47 85  1  0  0  0  0 
 48 49  1  0  0  0  0 
 48 86  1  0  0  0  0 
 49 87  1  0  0  0  0 
M  CHG  1   1   2
M  END
