
  CDK     0310111550

183193  0  0  0  0  0  0  0  0999 V2000
    3.5680   70.5040    3.0750 Co  0  0  0  0  0  0  0  0  0  0  0  0
    4.5220   70.8870    4.6010 N   0  0  0  0  0  0  0  0  0  0  0  0
    2.0390   71.4730    3.4580 N   0  0  0  0  0  0  0  0  0  0  0  0
    2.9230   70.4760    1.2070 N   0  0  0  0  0  0  0  0  0  0  0  0
    5.3430   70.1150    2.4910 N   0  0  0  0  0  0  0  0  0  0  0  0
    5.6030   70.1690    4.8230 C   0  0  0  0  0  0  0  0  0  0  0  0
    5.0830   68.5820    5.3150 C   0  0  0  0  0  0  0  0  0  0  0  0
    6.1770   70.7840    6.1840 C   0  0  0  0  0  0  0  0  0  0  0  0
    7.0080   69.7370    7.0210 C   0  0  0  0  0  0  0  0  0  0  0  0
    7.0430   71.9490    5.8090 C   0  0  0  0  0  0  0  0  0  0  0  0
    7.4990   72.9270    6.8190 C   0  0  0  0  0  0  0  0  0  0  0  0
    6.5580   73.7820    7.0280 O   0  0  0  0  0  0  0  0  0  0  0  0
    8.6880   72.8290    7.2790 N   0  0  0  0  0  0  0  0  0  0  0  0
    4.9900   71.3220    6.8490 C   0  0  0  0  0  0  0  0  0  0  0  0
    4.3460   70.5810    7.9600 C   0  0  0  0  0  0  0  0  0  0  0  0
    4.7470   71.3150    9.1400 C   0  0  0  0  0  0  0  0  0  0  0  0
    4.0440   70.6590   10.3550 C   0  0  0  0  0  0  0  0  0  0  0  0
    2.7720   70.6650   10.4240 O   0  0  0  0  0  0  0  0  0  0  0  0
    4.7310   70.1330   11.2730 N   0  0  0  0  0  0  0  0  0  0  0  0
    4.0570   71.5220    5.6160 C   0  0  0  0  0  0  0  0  0  0  0  0
    2.8400   72.2150    5.6760 C   0  0  0  0  0  0  0  0  0  0  0  0
    2.8540   73.5130    6.5650 C   0  0  0  0  0  0  0  0  0  0  0  0
    1.9030   72.1540    4.6480 C   0  0  0  0  0  0  0  0  0  0  0  0
    0.4520   72.7810    4.4770 C   0  0  0  0  0  0  0  0  0  0  0  0
   -0.1290   72.9440    5.9000 C   0  0  0  0  0  0  0  0  0  0  0  0
    0.6130   74.1330    3.7710 C   0  0  0  0  0  0  0  0  0  0  0  0
   -0.4450   74.8400    3.4220 C   0  0  0  0  0  0  0  0  0  0  0  0
   -0.2450   75.9800    3.8210 O   0  0  0  0  0  0  0  0  0  0  0  0
   -1.4240   74.4960    2.7560 N   0  0  0  0  0  0  0  0  0  0  0  0
   -0.3470   71.8900    3.5600 C   0  0  0  0  0  0  0  0  0  0  0  0
   -1.0610   70.7390    4.1180 C   0  0  0  0  0  0  0  0  0  0  0  0
   -2.0710   70.1130    3.3060 C   0  0  0  0  0  0  0  0  0  0  0  0
   -2.8580   69.0630    4.3080 C   0  0  0  0  0  0  0  0  0  0  0  0
   -2.2680   68.1610    4.9370 O   0  0  0  0  0  0  0  0  0  0  0  0
   -4.0700   69.0760    4.4970 N   0  0  0  0  0  0  0  0  0  0  0  0
    0.7900   71.4430    2.7660 C   0  0  0  0  0  0  0  0  0  0  0  0
    0.6230   71.0980    1.4870 C   0  0  0  0  0  0  0  0  0  0  0  0
    1.6670   70.7220    0.7300 C   0  0  0  0  0  0  0  0  0  0  0  0
    1.4920   70.3850   -0.7850 C   0  0  0  0  0  0  0  0  0  0  0  0
    1.8630   71.6450   -1.5410 C   0  0  0  0  0  0  0  0  0  0  0  0
    0.0290   70.0190   -1.2160 C   0  0  0  0  0  0  0  0  0  0  0  0
    2.5510   69.3750   -0.9370 C   0  0  0  0  0  0  0  0  0  0  0  0
    2.0390   67.9810   -0.7020 C   0  0  0  0  0  0  0  0  0  0  0  0
    1.8970   67.3480   -2.1170 C   0  0  0  0  0  0  0  0  0  0  0  0
    1.8320   65.9630   -1.9920 C   0  0  0  0  0  0  0  0  0  0  0  0
    2.7790   65.5180   -1.3130 O   0  0  0  0  0  0  0  0  0  0  0  0
    0.9070   65.3530   -2.5030 N   0  0  0  0  0  0  0  0  0  0  0  0
    3.6050   69.8070    0.1810 C   0  0  0  0  0  0  0  0  0  0  0  0
    4.9780   69.4500    0.1680 C   0  0  0  0  0  0  0  0  0  0  0  0
    5.4480   68.9650   -1.2390 C   0  0  0  0  0  0  0  0  0  0  0  0
    5.7840   69.6430    1.3040 C   0  0  0  0  0  0  0  0  0  0  0  0
    7.2530   69.3320    1.5600 C   0  0  0  0  0  0  0  0  0  0  0  0
    8.0490   70.4380    0.7840 C   0  0  0  0  0  0  0  0  0  0  0  0
    7.7200   67.9210    0.9960 C   0  0  0  0  0  0  0  0  0  0  0  0
    7.1470   66.5500    1.2970 C   0  0  0  0  0  0  0  0  0  0  0  0
    7.8780   65.4630    0.7100 C   0  0  0  0  0  0  0  0  0  0  0  0
    7.2220   65.0800   -0.2330 O   0  0  0  0  0  0  0  0  0  0  0  0
    8.8920   64.7660    1.2380 N   0  0  0  0  0  0  0  0  0  0  0  0
    7.3150   69.3580    3.0500 C   0  0  0  0  0  0  0  0  0  0  0  0
    8.6540   69.5790    3.5580 C   0  0  0  0  0  0  0  0  0  0  0  0
    9.2830   68.3500    4.1400 C   0  0  0  0  0  0  0  0  0  0  0  0
    9.4930   67.2570    3.4770 O   0  0  0  0  0  0  0  0  0  0  0  0
    9.6000   68.5920    5.3170 N   0  0  0  0  0  0  0  0  0  0  0  0
    6.2540   70.3220    3.5570 C   0  0  0  0  0  0  0  0  0  0  0  0
    9.6600   63.8210    0.4470 C   0  0  0  0  0  0  0  0  0  0  0  0
    9.2150   62.4920    0.4970 C   0  0  0  0  0  0  0  0  0  0  0  0
    9.9060   61.6730   -0.5830 C   0  0  0  0  0  0  0  0  0  0  0  0
    9.7030   62.2090    1.8890 O   0  0  0  0  0  0  0  0  0  0  0  0
    7.5190   62.2480    3.0640 O   0  0  0  0  0  0  0  0  0  0  0  0
    9.4960   61.9240    4.3730 O   0  0  0  0  0  0  0  0  0  0  0  0
    8.8300   61.6560    3.1560 P   0  0  0  0  0  0  0  0  0  0  0  0
    8.7610   60.0680    2.9740 O   0  0  0  0  0  0  0  0  0  0  0  0
   10.0190   59.1540    3.4160 C   0  0  0  0  0  0  0  0  0  0  0  0
    9.7250   58.5190    4.7400 C   0  0  0  0  0  0  0  0  0  0  0  0
    9.0100   59.5370    5.5060 O   0  0  0  0  0  0  0  0  0  0  0  0
    8.8890   57.2560    4.3600 C   0  0  0  0  0  0  0  0  0  0  0  0
    9.2990   56.8830    2.9370 O   0  0  0  0  0  0  0  0  0  0  0  0
   10.1060   57.9220    2.5150 C   0  0  0  0  0  0  0  0  0  0  0  0
   11.4250   57.6040    2.1290 C   0  0  0  0  0  0  0  0  0  0  0  0
   11.1940   56.9870    1.0220 O   0  0  0  0  0  0  0  0  0  0  0  0
    7.4620   57.2210    4.8170 N   0  0  0  0  0  0  0  0  0  0  0  0
    6.8610   56.1210    5.3680 C   0  0  0  0  0  0  0  0  0  0  0  0
    6.5470   58.1700    4.6370 C   0  0  0  0  0  0  0  0  0  0  0  0
    5.3430   57.6650    4.7710 N   0  0  0  0  0  0  0  0  0  0  0  0
    5.5170   56.3950    5.3010 C   0  0  0  0  0  0  0  0  0  0  0  0
    4.5030   55.3610    5.7810 C   0  0  0  0  0  0  0  0  0  0  0  0
    5.0470   54.1090    6.3260 C   0  0  0  0  0  0  0  0  0  0  0  0
    4.2010   53.1260    6.8230 C   0  0  0  0  0  0  0  0  0  0  0  0
    6.4620   53.8600    6.4180 C   0  0  0  0  0  0  0  0  0  0  0  0
    7.1460   52.5440    7.0220 C   0  0  0  0  0  0  0  0  0  0  0  0
    7.3540   54.8720    5.9410 C   0  0  0  0  0  0  0  0  0  0  0  0
    4.2910   72.3780    2.5400 C   0  0  0  0  0  0  0  0  0  0  0  0
    4.9730   67.9400    4.4280 H   0  0  0  0  0  0  0  0  0  0  0  0
    5.8310   68.1450    5.9930 H   0  0  0  0  0  0  0  0  0  0  0  0
    4.1160   68.6580    5.8340 H   0  0  0  0  0  0  0  0  0  0  0  0
    7.2010   68.8460    6.4060 H   0  0  0  0  0  0  0  0  0  0  0  0
    7.9650   70.1870    7.3250 H   0  0  0  0  0  0  0  0  0  0  0  0
    6.4380   69.4480    7.9160 H   0  0  0  0  0  0  0  0  0  0  0  0
    7.9590   71.5130    5.3830 H   0  0  0  0  0  0  0  0  0  0  0  0
    6.3810   72.5500    5.1680 H   0  0  0  0  0  0  0  0  0  0  0  0
    9.1180   72.0360    6.8480 H   0  0  0  0  0  0  0  0  0  0  0  0
    9.1120   73.4370    7.9500 H   0  0  0  0  0  0  0  0  0  0  0  0
    5.2560   72.2080    7.4440 H   0  0  0  0  0  0  0  0  0  0  0  0
    3.2520   70.5630    7.8500 H   0  0  0  0  0  0  0  0  0  0  0  0
    4.6480   69.5240    7.9960 H   0  0  0  0  0  0  0  0  0  0  0  0
    5.8390   71.2680    9.2630 H   0  0  0  0  0  0  0  0  0  0  0  0
    4.4620   72.3740    9.0530 H   0  0  0  0  0  0  0  0  0  0  0  0
    5.6990   70.2310   11.0430 H   0  0  0  0  0  0  0  0  0  0  0  0
    4.3680   69.6920   12.0940 H   0  0  0  0  0  0  0  0  0  0  0  0
    2.8570   73.2300    7.6280 H   0  0  0  0  0  0  0  0  0  0  0  0
    3.7550   74.1020    6.3400 H   0  0  0  0  0  0  0  0  0  0  0  0
    1.9590   74.1150    6.3490 H   0  0  0  0  0  0  0  0  0  0  0  0
    0.6930   72.9830    6.6300 H   0  0  0  0  0  0  0  0  0  0  0  0
   -0.7110   73.8760    5.9540 H   0  0  0  0  0  0  0  0  0  0  0  0
   -0.7820   72.0890    6.1290 H   0  0  0  0  0  0  0  0  0  0  0  0
    1.1850   74.7680    4.4630 H   0  0  0  0  0  0  0  0  0  0  0  0
    1.0660   73.8620    2.8060 H   0  0  0  0  0  0  0  0  0  0  0  0
   -1.3590   73.5280    2.5130 H   0  0  0  0  0  0  0  0  0  0  0  0
   -2.1770   75.1000    2.4960 H   0  0  0  0  0  0  0  0  0  0  0  0
   -1.2000   72.4100    3.1000 H   0  0  0  0  0  0  0  0  0  0  0  0
   -0.3040   69.9700    4.3310 H   0  0  0  0  0  0  0  0  0  0  0  0
   -1.6070   71.1410    4.9840 H   0  0  0  0  0  0  0  0  0  0  0  0
   -2.7670   70.8630    2.9020 H   0  0  0  0  0  0  0  0  0  0  0  0
   -1.6320   69.5950    2.4400 H   0  0  0  0  0  0  0  0  0  0  0  0
   -4.4660   69.8190    3.9570 H   0  0  0  0  0  0  0  0  0  0  0  0
   -4.5760   68.4500    5.0900 H   0  0  0  0  0  0  0  0  0  0  0  0
   -0.3660   71.1220    1.0550 H   0  0  0  0  0  0  0  0  0  0  0  0
    1.9530   72.4840   -0.8350 H   0  0  0  0  0  0  0  0  0  0  0  0
    2.8240   71.4940   -2.0550 H   0  0  0  0  0  0  0  0  0  0  0  0
    1.0820   71.8710   -2.2810 H   0  0  0  0  0  0  0  0  0  0  0  0
   -0.6070   69.9330   -0.3220 H   0  0  0  0  0  0  0  0  0  0  0  0
   -0.3670   70.8070   -1.8730 H   0  0  0  0  0  0  0  0  0  0  0  0
    0.0350   69.0600   -1.7550 H   0  0  0  0  0  0  0  0  0  0  0  0
    2.9740   69.3430   -1.9520 H   0  0  0  0  0  0  0  0  0  0  0  0
    2.7430   67.4040   -0.0840 H   0  0  0  0  0  0  0  0  0  0  0  0
    1.0820   67.9850   -0.1600 H   0  0  0  0  0  0  0  0  0  0  0  0
    0.9790   67.7190   -2.5970 H   0  0  0  0  0  0  0  0  0  0  0  0
    2.7640   67.6240   -2.7350 H   0  0  0  0  0  0  0  0  0  0  0  0
    0.3000   65.9940   -2.9740 H   0  0  0  0  0  0  0  0  0  0  0  0
    0.7750   64.3630   -2.4580 H   0  0  0  0  0  0  0  0  0  0  0  0
    5.5590   69.8310   -1.9080 H   0  0  0  0  0  0  0  0  0  0  0  0
    6.4150   68.4490   -1.1450 H   0  0  0  0  0  0  0  0  0  0  0  0
    4.7020   68.2730   -1.6560 H   0  0  0  0  0  0  0  0  0  0  0  0
    8.2350   71.2930    1.4510 H   0  0  0  0  0  0  0  0  0  0  0  0
    9.0090   70.0250    0.4400 H   0  0  0  0  0  0  0  0  0  0  0  0
    7.4610   70.7720   -0.0840 H   0  0  0  0  0  0  0  0  0  0  0  0
    7.5910   68.0220   -0.0920 H   0  0  0  0  0  0  0  0  0  0  0  0
    8.6800   67.8300    1.5260 H   0  0  0  0  0  0  0  0  0  0  0  0
    7.1550   66.4120    2.3880 H   0  0  0  0  0  0  0  0  0  0  0  0
    6.1370   66.5250    0.8620 H   0  0  0  0  0  0  0  0  0  0  0  0
    9.1260   64.9000    2.2010 H   0  0  0  0  0  0  0  0  0  0  0  0
    7.0760   68.3640    3.4570 H   0  0  0  0  0  0  0  0  0  0  0  0
    9.2840   69.9240    2.7250 H   0  0  0  0  0  0  0  0  0  0  0  0
    8.5770   70.3200    4.3670 H   0  0  0  0  0  0  0  0  0  0  0  0
    9.3380   69.5280    5.5530 H   0  0  0  0  0  0  0  0  0  0  0  0
   10.0500   67.9480    5.9360 H   0  0  0  0  0  0  0  0  0  0  0  0
    9.6090   64.1480   -0.6020 H   0  0  0  0  0  0  0  0  0  0  0  0
   10.6750   63.8200    0.8710 H   0  0  0  0  0  0  0  0  0  0  0  0
    8.1510   62.2780    0.3210 H   0  0  0  0  0  0  0  0  0  0  0  0
   10.0730   62.3020   -1.4700 H   0  0  0  0  0  0  0  0  0  0  0  0
   10.8730   61.3090   -0.2050 H   0  0  0  0  0  0  0  0  0  0  0  0
    9.2720   60.8160   -0.8550 H   0  0  0  0  0  0  0  0  0  0  0  0
   10.4310   61.9840    4.2160 H   0  0  0  0  0  0  0  0  0  0  0  0
   10.9100   59.7990    3.3950 H   0  0  0  0  0  0  0  0  0  0  0  0
   10.5760   58.1990    5.3590 H   0  0  0  0  0  0  0  0  0  0  0  0
    8.8550   59.2200    6.3880 H   0  0  0  0  0  0  0  0  0  0  0  0
    9.1290   56.3800    4.9810 H   0  0  0  0  0  0  0  0  0  0  0  0
    9.6490   58.1880    1.5500 H   0  0  0  0  0  0  0  0  0  0  0  0
   12.0550   58.4960    1.9950 H   0  0  0  0  0  0  0  0  0  0  0  0
   11.9920   57.0210    2.8700 H   0  0  0  0  0  0  0  0  0  0  0  0
   11.1370   57.6170    0.3140 H   0  0  0  0  0  0  0  0  0  0  0  0
    6.7630   59.2040    4.4130 H   0  0  0  0  0  0  0  0  0  0  0  0
    3.4390   55.5400    5.7230 H   0  0  0  0  0  0  0  0  0  0  0  0
    3.9770   52.3980    6.0290 H   0  0  0  0  0  0  0  0  0  0  0  0
    4.6900   52.6120    7.6640 H   0  0  0  0  0  0  0  0  0  0  0  0
    3.2650   53.5890    7.1700 H   0  0  0  0  0  0  0  0  0  0  0  0
    7.3030   51.8100    6.2180 H   0  0  0  0  0  0  0  0  0  0  0  0
    8.1150   52.8080    7.4720 H   0  0  0  0  0  0  0  0  0  0  0  0
    6.4900   52.1100    7.7910 H   0  0  0  0  0  0  0  0  0  0  0  0
    8.4190   54.7080    6.0070 H   0  0  0  0  0  0  0  0  0  0  0  0
    4.4190   72.9940    3.4430 H   0  0  0  0  0  0  0  0  0  0  0  0
    5.2610   72.2660    2.0330 H   0  0  0  0  0  0  0  0  0  0  0  0
    3.5760   72.8660    1.8610 H   0  0  0  0  0  0  0  0  0  0  0  0
  1  2  1  0  0  0  0 
  1  3  1  0  0  0  0 
  1  4  1  0  0  0  0 
  1  5  1  0  0  0  0 
  1 92  1  0  0  0  0 
  2  6  1  0  0  0  0 
  2 20  2  0  0  0  0 
  3 23  1  0  0  0  0 
  3 36  2  0  0  0  0 
  4 38  1  0  0  0  0 
  4 48  2  0  0  0  0 
  5 51  1  0  0  0  0 
  5 64  2  0  0  0  0 
  6  7  1  0  0  0  0 
  6  8  1  0  0  0  0 
  6 64  1  0  0  0  0 
  7 93  1  0  0  0  0 
  7 94  1  0  0  0  0 
  7 95  1  0  0  0  0 
  8  9  1  0  0  0  0 
  8 10  1  0  0  0  0 
  8 14  1  0  0  0  0 
  9 96  1  0  0  0  0 
  9 97  1  0  0  0  0 
  9 98  1  0  0  0  0 
 10 11  1  0  0  0  0 
 10 99  1  0  0  0  0 
 10100  1  0  0  0  0 
 11 12  2  0  0  0  0 
 11 13  1  0  0  0  0 
 13101  1  0  0  0  0 
 13102  1  0  0  0  0 
 14 15  1  0  0  0  0 
 14 20  1  0  0  0  0 
 14103  1  0  0  0  0 
 15 16  1  0  0  0  0 
 15104  1  0  0  0  0 
 15105  1  0  0  0  0 
 16 17  1  0  0  0  0 
 16106  1  0  0  0  0 
 16107  1  0  0  0  0 
 17 18  2  0  0  0  0 
 17 19  1  0  0  0  0 
 19108  1  0  0  0  0 
 19109  1  0  0  0  0 
 20 21  1  0  0  0  0 
 21 22  1  0  0  0  0 
 21 23  2  0  0  0  0 
 22110  1  0  0  0  0 
 22111  1  0  0  0  0 
 22112  1  0  0  0  0 
 23 24  1  0  0  0  0 
 24 25  1  0  0  0  0 
 24 26  1  0  0  0  0 
 24 30  1  0  0  0  0 
 25113  1  0  0  0  0 
 25114  1  0  0  0  0 
 25115  1  0  0  0  0 
 26 27  1  0  0  0  0 
 26116  1  0  0  0  0 
 26117  1  0  0  0  0 
 27 28  2  0  0  0  0 
 27 29  1  0  0  0  0 
 29118  1  0  0  0  0 
 29119  1  0  0  0  0 
 30 31  1  0  0  0  0 
 30 36  1  0  0  0  0 
 30120  1  0  0  0  0 
 31 32  1  0  0  0  0 
 31121  1  0  0  0  0 
 31122  1  0  0  0  0 
 32 33  1  0  0  0  0 
 32123  1  0  0  0  0 
 32124  1  0  0  0  0 
 33 34  2  0  0  0  0 
 33 35  1  0  0  0  0 
 35125  1  0  0  0  0 
 35126  1  0  0  0  0 
 36 37  1  0  0  0  0 
 37 38  2  0  0  0  0 
 37127  1  0  0  0  0 
 38 39  1  0  0  0  0 
 39 40  1  0  0  0  0 
 39 41  1  0  0  0  0 
 39 42  1  0  0  0  0 
 40128  1  0  0  0  0 
 40129  1  0  0  0  0 
 40130  1  0  0  0  0 
 41131  1  0  0  0  0 
 41132  1  0  0  0  0 
 41133  1  0  0  0  0 
 42 43  1  0  0  0  0 
 42 48  1  0  0  0  0 
 42134  1  0  0  0  0 
 43 44  1  0  0  0  0 
 43135  1  0  0  0  0 
 43136  1  0  0  0  0 
 44 45  1  0  0  0  0 
 44137  1  0  0  0  0 
 44138  1  0  0  0  0 
 45 46  2  0  0  0  0 
 45 47  1  0  0  0  0 
 47139  1  0  0  0  0 
 47140  1  0  0  0  0 
 48 49  1  0  0  0  0 
 49 50  1  0  0  0  0 
 49 51  2  0  0  0  0 
 50141  1  0  0  0  0 
 50142  1  0  0  0  0 
 50143  1  0  0  0  0 
 51 52  1  0  0  0  0 
 52 53  1  0  0  0  0 
 52 54  1  0  0  0  0 
 52 59  1  0  0  0  0 
 53144  1  0  0  0  0 
 53145  1  0  0  0  0 
 53146  1  0  0  0  0 
 54 55  1  0  0  0  0 
 54147  1  0  0  0  0 
 54148  1  0  0  0  0 
 55 56  1  0  0  0  0 
 55149  1  0  0  0  0 
 55150  1  0  0  0  0 
 56 57  2  0  0  0  0 
 56 58  1  0  0  0  0 
 58 65  1  0  0  0  0 
 58151  1  0  0  0  0 
 59 60  1  0  0  0  0 
 59 64  1  0  0  0  0 
 59152  1  0  0  0  0 
 60 61  1  0  0  0  0 
 60153  1  0  0  0  0 
 60154  1  0  0  0  0 
 61 62  2  0  0  0  0 
 61 63  1  0  0  0  0 
 63155  1  0  0  0  0 
 63156  1  0  0  0  0 
 65 66  1  0  0  0  0 
 65157  1  0  0  0  0 
 65158  1  0  0  0  0 
 66 67  1  0  0  0  0 
 66 68  1  0  0  0  0 
 66159  1  0  0  0  0 
 67160  1  0  0  0  0 
 67161  1  0  0  0  0 
 67162  1  0  0  0  0 
 68 71  1  0  0  0  0 
 69 71  2  0  0  0  0 
 70 71  1  0  0  0  0 
 70163  1  0  0  0  0 
 71 72  1  0  0  0  0 
 72 73  1  0  0  0  0 
 73 74  1  0  0  0  0 
 73 78  1  0  0  0  0 
 73164  1  0  0  0  0 
 74 75  1  0  0  0  0 
 74 76  1  0  0  0  0 
 74165  1  0  0  0  0 
 75166  1  0  0  0  0 
 76 77  1  0  0  0  0 
 76 81  1  0  0  0  0 
 76167  1  0  0  0  0 
 77 78  1  0  0  0  0 
 78 79  1  0  0  0  0 
 78168  1  0  0  0  0 
 79 80  1  0  0  0  0 
 79169  1  0  0  0  0 
 79170  1  0  0  0  0 
 80171  1  0  0  0  0 
 81 82  1  0  0  0  0 
 81 83  1  0  0  0  0 
 82 85  2  0  0  0  0 
 82 91  1  0  0  0  0 
 83 84  2  0  0  0  0 
 83172  1  0  0  0  0 
 84 85  1  0  0  0  0 
 85 86  1  0  0  0  0 
 86 87  2  0  0  0  0 
 86173  1  0  0  0  0 
 87 88  1  0  0  0  0 
 87 89  1  0  0  0  0 
 88174  1  0  0  0  0 
 88175  1  0  0  0  0 
 88176  1  0  0  0  0 
 89 90  1  0  0  0  0 
 89 91  2  0  0  0  0 
 90177  1  0  0  0  0 
 90178  1  0  0  0  0 
 90179  1  0  0  0  0 
 91180  1  0  0  0  0 
 92181  1  0  0  0  0 
 92182  1  0  0  0  0 
 92183  1  0  0  0  0 
M  CHG  1   1   2
M  CHG  1   5  -1
M  END
